Version 4
SHEET 1 1024 680
WIRE 288 -496 128 -496
WIRE 128 -480 128 -496
WIRE 288 -400 288 -496
WIRE 128 -384 128 -400
WIRE 240 -384 208 -384
WIRE 208 -304 208 -384
WIRE 208 -304 96 -304
WIRE 96 -288 96 -304
WIRE 288 -240 288 -304
WIRE 96 -176 96 -208
WIRE 624 -144 448 -144
WIRE 448 -128 448 -144
WIRE 688 -64 544 -64
WIRE 800 -64 768 -64
WIRE 288 32 288 -160
WIRE 400 32 288 32
WIRE 544 32 544 -64
WIRE 544 32 480 32
WIRE 288 64 288 32
WIRE 624 64 624 -144
WIRE 544 80 544 32
WIRE 592 80 544 80
WIRE 800 96 800 -64
WIRE 800 96 656 96
WIRE 848 96 800 96
WIRE 592 112 544 112
WIRE 624 144 624 128
WIRE 544 160 544 112
WIRE 288 240 288 144
FLAG 448 -48 0
FLAG 624 144 0
FLAG 288 240 0
FLAG 96 -176 0
FLAG 128 -384 0
FLAG 544 160 0
SYMBOL current 288 -240 R0
WINDOW 123 0 0 Left 0
WINDOW 39 0 0 Left 0
SYMATTR InstName I1
SYMATTR Value 0.01
SYMBOL res 272 48 R0
SYMATTR InstName R1
SYMATTR Value {X}
SYMBOL OpAmps\\OP07 624 32 R0
SYMATTR InstName U1
SYMBOL res 496 16 R90
WINDOW 0 0 56 VBottom 2
WINDOW 3 32 56 VTop 2
SYMATTR InstName R4
SYMATTR Value 2.2k
SYMBOL res 784 -80 R90
WINDOW 0 0 56 VBottom 2
WINDOW 3 32 56 VTop 2
SYMATTR InstName R5
SYMATTR Value 100k
SYMBOL voltage 448 -144 R0
WINDOW 123 0 0 Left 0
WINDOW 39 0 0 Left 0
SYMATTR InstName V2
SYMATTR Value 3.3
SYMBOL pmos 240 -304 M180
SYMATTR InstName M1
SYMATTR Value AO6407
SYMBOL voltage 96 -304 R0
WINDOW 123 0 0 Left 0
WINDOW 39 0 0 Left 0
SYMATTR InstName V1
SYMATTR Value 0
SYMBOL voltage 128 -496 R0
WINDOW 123 0 0 Left 0
WINDOW 39 0 0 Left 0
SYMATTR InstName V3
SYMATTR Value 3.7
TEXT -1002 8 Left 2 !.tran 0 5 0 0.01
TEXT -984 40 Left 2 !.step param X list 0.0000001 0.5 1 1.5 2 2.5 3 1000000
